<?xml version="1.0" encoding="utf-8"?>
<!DOCTYPE network SYSTEM "http://www.matsim.org/files/dtd/network_v2.dtd">

<network name="Bliemer_single_OD_multiple_routes">

<!-- ====================================================================== -->

	<nodes>
		<node id="x_r" x="-2000" y="500.0" />
		<node id="x_s" x="2000" y="500.0" />
		
		<node id="r" x="-1500.0" y="0.0" />
		<node id="diverge" x="-1000.0" y="0.0" />
		<node id="through_1" x="-500.0" y="500.0" />
		<node id="cross" x="0.0" y="0.0" />
		<node id="through_2" x="500.0" y="500.0" />
		<node id="merge" x="1000.0" y="0.0" />
		<node id="s" x="1500.0" y="0.0" />
		
	</nodes>
<!-- ====================================================================== -->

	<links capperiod="01:00:00" effectivecellsize="7.5" effectivelanewidth="3.75">
		
		<link id="x_r" from="x_r" to="r" length="2000.0" freespeed="27.8" capacity="10000" permlanes="1.0" oneway="1" origid="1" type="1" />
		<link id="x_s" from="s" to="x_s" length="2000.0" freespeed="27.8" capacity="10000" permlanes="1.0" oneway="1" origid="1" type="1" />
		
		<link id="1" from="r" to="diverge" length="2000.0" freespeed="27.8" capacity="8000" permlanes="1.0" oneway="1" origid="1" type="1" />
		<link id="2" from="diverge" to="cross" length="2000.0" freespeed="27.8" capacity="3000" permlanes="1.0" oneway="1" origid="1" type="1" />
		<link id="3" from="diverge" to="through_1" length="2000.0" freespeed="27.8" capacity="5000" permlanes="1.0" oneway="1" origid="1" type="1" />
		<link id="4" from="through_1" to="cross" length="2000.0" freespeed="27.8" capacity="4000" permlanes="1.0" oneway="1" origid="1" type="1" />
		<link id="5" from="cross" to="merge" length="2000.0" freespeed="27.8" capacity="2500" permlanes="1.0" oneway="1" origid="1" type="1" />
		<link id="6" from="cross" to="through_2" length="2000.0" freespeed="27.8" capacity="3000" permlanes="1.0" oneway="1" origid="1" type="1" />
		<link id="7" from="through_2" to="merge" length="2000.0" freespeed="27.8" capacity="2000" permlanes="1.0" oneway="1" origid="1" type="1" />
		<link id="8" from="merge" to="s" length="2000.0" freespeed="27.8" capacity="2000" permlanes="1.0" oneway="1" origid="1" type="1" />

	</links>
<!-- ====================================================================== -->

</network>