<?xml version="1.0" encoding="utf-8"?>
<!DOCTYPE population SYSTEM "http://www.matsim.org/files/dtd/population_v6.dtd">

<population>
<!-- ====================================================================== -->

	<person id="0">
		<plan selected="yes">
			<activity type="h" x="1000.0" y="1000.0" end_time="08:00:00" >
			</activity>
			<leg mode="pt">
			</leg>
			<activity type="w" x="4000.0" y="3000.0" end_time="16:00:00" >
			</activity>
			<leg mode="pt">
			</leg>
			<activity type="h" x="1000.0" y="1000.0" >
			</activity>
		</plan>
	</person>

	<person id="1">
		<plan selected="yes">
			<activity type="h" x="1000.0" y="1000.0" end_time="08:00:00" >
			</activity>
			<leg mode="pt">
			</leg>
			<activity type="w" x="4000.0" y="3000.0" end_time="16:00:00" >
			</activity>
			<leg mode="pt">
			</leg>
			<activity type="h" x="1000.0" y="1000.0" >
			</activity>
		</plan>
	</person>

</population>
